
** Library name: GATES
** Cell name: aoi31_core
** View name: schematic
.subckt aoi31_core a b c d out inh_gnd inh_vdd
