
** Library name: CORELIB
** Cell name: AOI221
** View name: cmos_sch
.subckt AOI221 a b c d q inh_gnd inh_vdd
