
** Library name: CORELIB
** Cell name: OAI221
** View name: cmos_sch
.subckt OAI221 a b c d q inh_gnd inh_vdd
