
** Library name: CORELIB
** Cell name: BUF2
** View name: cmos_sch
.subckt BUF2 a q inh_gnd inh_vdd
