
** Library name: CORELIB
** Cell name: NOR40
** View name: cmos_sch
.subckt NOR40 a b c d q inh_gnd inh_vdd
