
** Library name: CORELIB
** Cell name: OAI311
** View name: cmos_sch
.subckt OAI311 a b c d q inh_gnd inh_vdd
