
** Library name: CORELIB
** Cell name: NAND21
** View name: cmos_sch
.subckt NAND21 a b q inh_gnd inh_vdd
