
** Library name: GATES
** Cell name: oai31_core
** View name: schematic
.subckt oai31_core a b c d out inh_gnd inh_vdd
