
** Library name: CORELIB
** Cell name: CLKIN1
** View name: cmos_sch
.subckt CLKIN1 a q inh_gnd inh_vdd
