
** Library name: CORELIB
** Cell name: NOR22
** View name: cmos_sch
.subckt NOR22 a b q inh_gnd inh_vdd
