
** Library name: CORELIB
** Cell name: INV3
** View name: cmos_sch
.subckt INV3 a q inh_gnd inh_vdd
