
** Library name: GATES
** Cell name: aoi22_core
** View name: schematic
.subckt aoi22_core a b c d out inh_gnd inh_vdd
