
** Library name: CORELIB
** Cell name: AOI211
** View name: cmos_sch
.subckt AOI211 a b c q inh_gnd inh_vdd
