
** Library name: CORELIB
** Cell name: OAI2111
** View name: cmos_sch
.subckt OAI2111 a b c d q inh_gnd inh_vdd
