
** Library name: CORELIB
** Cell name: NAND31
** View name: cmos_sch
.subckt NAND31 a b c q inh_gnd inh_vdd
