
** Library name: CORELIB
** Cell name: IMUX21
** View name: cmos_sch
.subckt IMUX21 a b q s inh_gnd inh_vdd
