
** Library name: GATES
** Cell name: nor4_core
** View name: schematic
.subckt nor4_core a b c d out inh_gnd inh_vdd
