
** Library name: CORELIB
** Cell name: OAI211
** View name: cmos_sch
.subckt OAI211 a b c q inh_gnd inh_vdd
