
** Library name: CORELIB
** Cell name: DFC1
** View name: cmos_sch
.subckt DFC1 c d q qn rn inh_gnd inh_vdd
