
** Library name: GATES
** Cell name: oai211_core
** View name: schematic
.subckt oai211_core a b c d out inh_gnd inh_vdd
