
** Library name: CORELIB
** Cell name: NAND41
** View name: cmos_sch
.subckt NAND41 a b c d q inh_gnd inh_vdd
