
** Library name: CORELIB
** Cell name: NAND22
** View name: cmos_sch
.subckt NAND22 a b q inh_gnd inh_vdd
