
** Library name: GATES
** Cell name: nor3_core
** View name: schematic
.subckt nor3_core a b c out inh_gnd inh_vdd
