
** Library name: CORELIB
** Cell name: XNR22
** View name: cmos_sch
.subckt XNR22 a b q inh_gnd inh_vdd
